data_crystal

_cell_length_a 17.80900
_cell_length_b 17.83100
_cell_length_c 17.81200
_cell_angle_alpha 90.03100
_cell_angle_beta  90.18200
_cell_angle_gamma 89.99900

_symmetry_space_group_name_	'P 1'
_symmetry_space_group_name_H-M	'P 1'

loop_
_symmetry_equiv_pos_as_xyz
  x,y,z

loop_
_atom_site_label
_atom_site_type_symbol
_atom_site_fract_x
_atom_site_fract_y
_atom_site_fract_z
_atom_site_charge
Zr	Zr	1.63777 0.51040 0.51099 3.15300
Zr	Zr	1.13768 0.48959 1.01118 3.18000
Zr	Zr	0.86239 -0.01054 0.51111 3.15400
Zr	Zr	1.48907 0.63770 0.51056 3.16700
Zr	Zr	1.01061 0.01106 0.63780 3.16700
Zr	Zr	0.98940 0.51104 1.13772 3.04200
Zr	Zr	1.01098 -0.13765 0.51047 3.15400
Zr	Zr	0.98905 0.36236 1.01048 3.14100
Zr	Zr	1.48950 0.48877 0.63774 3.16800
C 	C 	0.99800 0.24500 0.78800 -0.17600
H 	H 	0.99940 0.19520 0.80670 0.06000
O 	O 	1.12560 0.48040 0.80830 -0.29900
O 	O 	0.81110 -0.00830 0.62400 -0.81100
O 	O 	1.05960 0.43430 0.95080 -1.14300
O 	O 	1.58300 0.42000 0.57900 -1.00000
O 	O 	1.37690 0.68970 0.50870 -0.78800
O 	O 	0.94940 -0.06020 0.56850 -1.61500
O 	O 	0.92150 -0.08910 0.43410 -1.07400
O 	O 	1.29150 0.58910 0.49270 -0.92700
O 	O 	1.41080 0.56510 0.57760 -1.32500
O 	O 	1.05240 0.44130 1.06700 -1.71500
O 	O 	1.54920 0.56010 0.56640 -1.54100
O 	O 	1.19150 0.37650 1.02130 -0.78500
O 	O 	1.09040 -0.06550 0.57820 -0.96400
O 	O 	0.69000 -0.00830 0.87570 -0.97500
O 	O 	1.49030 0.37600 0.69110 -0.68300
O 	O 	1.50910 0.29110 0.59030 -0.43900
O 	O 	1.49230 0.12430 0.81020 -0.30100
O 	O 	1.00850 0.12470 0.68880 -0.71900
O 	O 	0.99280 0.29120 0.90950 -0.87000
O 	O 	1.29040 0.48010 0.59100 -0.87200
O 	O 	1.20840 0.59100 1.00940 -0.77400
O 	O 	1.37690 0.81090 0.99220 -0.19600
O 	O 	1.12290 0.68970 0.99140 -0.38700
O 	O 	1.30860 0.12470 1.01920 -0.32300
O 	O 	1.40880 0.21050 1.01830 -0.75100
O 	O 	1.50970 0.20910 0.91030 -0.81300
O 	O 	1.08000 0.58200 1.07900 -1.22200
O 	O 	1.29030 0.90820 1.00730 -0.22700
O 	O 	0.59020 0.00790 0.79120 -0.54100
O 	O 	1.00690 0.37600 0.81020 -0.37800
O 	O 	0.90980 0.00850 0.70930 -0.72400
O 	O 	1.37730 0.48000 0.69230 -0.72800
O 	O 	0.99100 0.20970 0.58870 -0.44500
C 	C 	1.50400 0.30920 0.66170 0.34500
C 	C 	1.50000 0.24450 0.71180 -0.14500
H 	H 	1.49620 0.19540 0.69160 0.09800
C 	C 	0.99500 0.19200 0.65900 0.35300
O 	O 	1.09090 0.28950 1.01910 -0.84000
C 	C 	0.84110 0.00200 0.69000 0.46000
C 	C 	0.66000 0.00500 0.81000 0.31200
C 	C 	0.71190 0.00100 0.74600 -0.18900
H 	H 	0.69260 -0.00130 0.69640 0.02300
C 	C 	1.50200 0.25450 0.78690 -0.12900
H 	H 	1.50120 0.30430 0.80600 0.07600
C 	C 	0.99700 0.30900 0.84200 0.35500
O 	O 	1.12200 0.81000 0.50720 -0.73100
C 	C 	1.19080 0.84020 0.49600 0.31300
C 	C 	0.99800 0.25600 0.71000 -0.17400
H 	H 	1.00070 0.30590 0.69080 0.04900
C 	C 	1.25670 0.78910 0.49700 -0.11900
H 	H 	1.30640 0.80840 0.49780 0.06600
O 	O 	1.20970 0.48120 0.90820 -0.66800
C 	C 	1.21300 0.24670 1.01500 -0.23200
H 	H 	1.19350 0.19740 1.01190 0.07900
C 	C 	1.25560 0.48100 0.78800 -0.11100
H 	H 	1.30540 0.47860 0.80700 0.08900
C 	C 	1.18960 0.48000 0.84200 0.39800
C 	C 	0.78820 0.00000 0.75800 -0.20000
H 	H 	0.80800 -0.00210 0.80760 0.03200
O 	O 	1.55940 0.56660 0.45070 -1.39800
O 	O 	0.92000 0.08200 0.58100 -0.95900
C 	C 	1.24430 0.78920 1.00000 -0.10300
H 	H 	1.19470 0.80860 0.99650 0.04400
C 	C 	1.31000 0.84160 1.00300 0.26100
C 	C 	1.31210 0.48300 0.66100 0.44900
C 	C 	1.16000 0.31080 1.02000 0.45100
C 	C 	1.24500 0.48500 0.71400 -0.15500
H 	H 	1.19550 0.48800 0.69450 0.09000
O 	O 	1.20890 0.91160 0.49180 -0.35400
C 	C 	1.24300 0.71030 0.49900 -0.20400
H 	H 	1.19340 0.69100 0.50030 0.06400
C 	C 	1.34100 0.18930 1.01800 0.34600
C 	C 	1.30800 0.65990 0.49700 0.42600
C 	C 	1.28700 0.25450 1.01600 -0.12800
H 	H 	1.30660 0.30390 1.01480 0.03500
C 	C 	1.18800 0.65800 1.00400 0.38400
C 	C 	1.25540 0.71240 1.00200 -0.18400
H 	H 	1.30500 0.69280 1.00130 0.07200
O 	O 	0.93460 0.45010 1.05940 -2.23000
C 	C 	1.50400 0.19200 0.84040 0.33900
Zr	Zr	0.63767 -0.01048 0.98908 3.09800
Zr	Zr	0.51107 0.13769 1.01046 3.07500
Zr	Zr	0.51067 -0.01100 1.13763 3.12400
O 	O 	0.43900 -0.06000 1.06200 -0.85200
O 	O 	0.44960 0.06070 1.06670 -1.44200
O 	O 	0.59100 0.06580 1.07790 -1.63700
O 	O 	0.55700 -0.06620 1.05050 -1.39100
O 	O 	1.80980 0.51000 0.87660 -0.88600
O 	O 	1.68910 0.50640 0.62390 -0.72500
O 	O 	1.59040 0.49090 0.70940 -0.68400
C 	C 	1.66030 0.49400 0.69100 0.48300
C 	C 	1.78760 0.50010 0.74460 -0.07800
H 	H 	1.80730 0.50160 0.69510 0.09500
C 	C 	1.71400 0.50000 0.75400 -0.18700
H 	H 	1.69410 0.50310 0.80330 0.07000
O 	O 	1.90950 0.49160 0.78920 -0.18400
C 	C 	1.84000 0.49800 0.80900 0.31100
O 	O 	1.69120 0.62230 0.52050 -0.73900
O 	O 	1.80730 0.87580 0.51990 -0.46300
O 	O 	1.59030 0.71120 0.51880 -0.71000
O 	O 	1.91010 0.78990 0.51890 -0.55300
C 	C 	1.84200 0.80970 0.51800 0.44100
C 	C 	1.66000 0.69000 0.51600 0.43400
C 	C 	1.78600 0.74500 0.51900 -0.07400
H 	H 	1.80500 0.69540 0.52010 0.07500
C 	C 	1.71200 0.75500 0.51800 -0.17700
H 	H 	1.69160 0.80420 0.51830 0.14000
O 	O 	1.47900 0.80700 0.87830 -0.20900
O 	O 	1.47980 0.69020 0.62320 -0.65200
O 	O 	1.48100 0.90780 0.78980 -0.17100
C 	C 	1.48300 0.78600 0.74600 -0.01700
H 	H 	1.48350 0.80580 0.69600 0.07800
O 	O 	1.48170 0.59180 0.71140 -0.62800
C 	C 	1.48200 0.66100 0.68870 0.48500
C 	C 	1.48500 0.71400 0.75500 -0.19100
H 	H 	1.48730 0.69380 0.80430 0.11200
C 	C 	1.48000 0.84100 0.81000 0.23900
O 	O 	1.02050 -0.19260 0.62370 -0.72100
O 	O 	1.02060 -0.09120 0.71070 -0.71400
O 	O 	1.01660 -0.40870 0.78910 -0.36100
O 	O 	1.01930 -0.30860 0.87710 -0.40800
C 	C 	1.01500 -0.28800 0.74500 -0.07900
H 	H 	1.01070 -0.30840 0.69630 0.02300
C 	C 	1.01800 -0.33900 0.81030 0.21500
C 	C 	1.01700 -0.16120 0.68900 0.45600
C 	C 	1.01800 -0.21200 0.75500 -0.22700
H 	H 	1.02120 -0.19190 0.80380 0.08900
O 	O 	0.78890 -0.01870 0.41060 -0.81700
O 	O 	0.71110 -0.01810 0.09020 -0.80300
O 	O 	0.87710 -0.01870 0.31000 -0.41900
O 	O 	0.62410 -0.02080 0.19160 -0.87200
C 	C 	0.74400 -0.01800 0.28600 -0.10300
H 	H 	0.69380 -0.02290 0.30450 -0.03900
C 	C 	0.81150 -0.01500 0.34070 0.26300
C 	C 	0.75700 -0.01400 0.21500 -0.28700
H 	H 	0.80590 -0.00750 0.19570 0.07200
C 	C 	0.68870 -0.02100 0.16300 0.45300
Zr	Zr	1.36223 0.48960 0.48901 3.05300
Zr	Zr	0.86232 0.51041 0.98882 3.00500
