data_crystal

_cell_length_a 17.83480
_cell_length_b 17.83480
_cell_length_c 17.83480
_cell_angle_alpha 90.00000
_cell_angle_beta  90.00000
_cell_angle_gamma 90.00000

_symmetry_space_group_name_	'P 1'
_symmetry_space_group_name_H-M	'P 1'

loop_
_symmetry_equiv_pos_as_xyz
  x,y,z

loop_
_atom_site_label
_atom_site_type_symbol
_atom_site_fract_x
_atom_site_fract_y
_atom_site_fract_z
_atom_site_charge
Zr	Zr	0.13785 0.51113 0.01188 3.12000
O 	O 	0.20900 0.40850 0.00800 -0.86200
O 	O 	0.19040 0.62460 0.02460 -0.84000
O 	O 	0.12630 0.31040 -0.00730 -0.43400
O 	O 	0.09060 0.70880 0.02390 -0.40600
C 	C 	0.16040 0.68910 0.02400 0.38000
C 	C 	0.21420 0.75550 0.02430 -0.17700
H 	H 	0.19550 0.80420 0.02440 0.05300
C 	C 	0.19060 0.33980 -0.00000 0.38600
C 	C 	0.25670 0.28650 0.00010 -0.18400
H 	H 	0.30560 0.30460 0.00010 0.04100
O 	O 	0.07650 0.59170 -0.06470 -0.73200
O 	O 	0.07850 0.42150 0.07850 -0.74800
O 	O 	0.29100 0.09150 0.00800 -1.03700
O 	O 	0.37370 0.18960 -0.00730 -0.57700
C 	C 	0.30940 0.16020 -0.00000 0.37500
C 	C 	0.24330 0.21350 0.00010 -0.21300
H 	H 	0.19440 0.19540 0.00010 0.04500
O 	O 	0.30960 0.87540 0.02460 -0.92000
O 	O 	0.40940 0.79120 0.02390 -0.52400
C 	C 	0.33960 0.81090 0.02400 0.34700
C 	C 	0.28580 0.74450 0.02430 -0.17100
H 	H 	0.30450 0.69580 0.02440 0.03900
Zr	Zr	0.36215 -0.01113 0.01188 3.03900
