data_crystal

_cell_length_a 35.07640
_cell_length_b 35.07640
_cell_length_c 35.07640
_cell_angle_alpha 90.00000
_cell_angle_beta  90.00000
_cell_angle_gamma 90.00000

_symmetry_space_group_name_	'P 1'
_symmetry_space_group_name_H-M	'P 1'

loop_
_symmetry_equiv_pos_as_xyz
  x,y,z

loop_
_atom_site_label
_atom_site_type_symbol
_atom_site_fract_x
_atom_site_fract_y
_atom_site_fract_z
_atom_site_charge
Zr	Zr	0.79704 0.22661 0.45296 3.19800
O 	O 	0.77813 0.27813 0.47187 -1.65600
O 	O 	0.79866 0.25340 0.39586 -0.71800
C 	C 	0.78129 0.28129 0.38143 0.64300
C 	C 	0.77938 0.32807 0.32807 0.35500
H 	H 	0.75720 0.33910 0.33910 -0.20100
C 	C 	0.79564 0.29564 0.34434 -0.48300
O 	O 	0.76548 0.18441 0.48452 -1.65000
O 	O 	0.79490 0.18190 0.40900 -0.47500
C 	C 	0.75000 0.15939 0.40939 -0.01700
O 	O 	0.75340 0.39586 0.29866 -1.54700
C 	C 	0.78129 0.38143 0.28129 0.71100
C 	C 	0.82807 0.32807 0.27938 0.38800
H 	H 	0.83910 0.33910 0.25720 -0.36300
C 	C 	0.79564 0.34434 0.29564 -0.69400
O 	O 	0.89586 0.29866 0.25340 -1.63900
C 	C 	0.88143 0.28129 0.28129 0.71200
C 	C 	0.82807 0.27938 0.32807 0.36200
H 	H 	0.83910 0.25720 0.33910 -0.17200
C 	C 	0.84434 0.29564 0.29564 -0.68400
O 	O 	0.79866 0.39586 0.25340 -1.64400
O 	O 	0.89586 0.25340 0.29866 -1.52300
O 	O 	0.75340 0.29866 0.39586 -0.75400
O 	O 	0.70510 0.15900 0.43190 -0.96300
Zr	Zr	0.79704 0.29704 0.52339 3.19500
O 	O 	0.76548 0.26548 0.56559 -1.69400
O 	O 	0.84100 0.29490 0.56810 -0.62100
C 	C 	0.84061 0.25000 0.59061 -0.23200
O 	O 	0.81810 0.20510 0.59100 -0.98700
Zr	Zr	0.72661 0.29704 0.45296 3.19700
O 	O 	0.68441 0.26548 0.48452 -1.69200
O 	O 	0.68190 0.34100 0.45510 -0.64600
C 	C 	0.65939 0.34061 0.50000 -0.25200
O 	O 	0.65900 0.31810 0.54490 -0.99700
Zr	Zr	0.77339 0.20296 0.54704 3.03300
Zr	Zr	0.70296 0.20296 0.47661 3.03300
Zr	Zr	0.70296 0.27339 0.54704 3.03100
Zr	Zr	0.79704 0.45296 0.22661 2.84900
Zr	Zr	0.72661 0.45296 0.29704 2.86800
Zr	Zr	0.95296 0.22661 0.29704 2.87200
Zr	Zr	0.95296 0.29704 0.22661 2.85000
O 	O 	0.85414 0.29866 0.49660 -0.60900
O 	O 	0.75340 0.35414 0.45134 -0.62000
O 	O 	0.79866 0.35414 0.49660 -0.61700
O 	O 	0.85414 0.25340 0.45134 -0.62000
O 	O 	0.81559 0.23452 0.51548 -1.32200
O 	O 	0.73452 0.23452 0.43441 -1.29600
O 	O 	0.73452 0.31559 0.51548 -1.32700
O 	O 	0.68190 0.29490 0.40900 -0.71700
O 	O 	0.79490 0.34100 0.56810 -0.73300
O 	O 	0.84100 0.18190 0.45510 -0.67700
O 	O 	0.74810 0.20320 0.36400 -0.19800
O 	O 	0.78100 0.14960 0.35830 -0.28900
O 	O 	0.83820 0.33820 0.41180 -0.39300
O 	O 	0.80230 0.12760 0.44770 -0.43400
O 	O 	1.50200 1.00200 -0.25200 -0.76300
O 	O 	0.77210 0.18400 0.31490 -0.37800
