data_crystal

_cell_length_a 14.67660
_cell_length_b 14.67660
_cell_length_c 28.00330
_cell_angle_alpha 90.00000
_cell_angle_beta  90.00000
_cell_angle_gamma 90.00000

_symmetry_space_group_name_	'P 1'
_symmetry_space_group_name_H-M	'P 1'

loop_
_symmetry_equiv_pos_as_xyz
  x,y,z

loop_
_atom_site_label
_atom_site_type_symbol
_atom_site_fract_x
_atom_site_fract_y
_atom_site_fract_z
_atom_site_charge
Zr	Zr	0.00000 0.00000 0.08772 3.14300
Zr	Zr	0.16211 0.05358 -0.00000 3.12400
O 	O 	0.12280 0.03610 0.12801 -0.84300
O 	O 	-0.12400 0.06290 0.04740 -1.06700
C 	C 	0.50000 0.00000 0.25000 -0.14300
O 	O 	0.29310 -0.02100 -0.00000 -0.85800
O 	O 	0.22570 0.18850 -0.00000 -0.67800
O 	O 	0.22650 0.07310 0.07310 -0.70500
C 	C 	0.27580 0.04820 0.15202 -0.25700
C 	C 	0.26173 -0.00590 0.19207 0.14400
H 	H 	0.20400 -0.03330 0.19730 -0.04300
C 	C 	0.33217 -0.01990 0.22443 -0.21500
H 	H 	0.32260 -0.05690 0.25180 0.09400
C 	C 	0.41668 0.02030 0.21674 0.14600
C 	C 	0.43075 0.07440 0.17668 -0.20800
H 	H 	0.48850 0.10190 0.17140 0.10400
C 	C 	0.36031 0.08840 0.14432 0.14300
H 	H 	0.36990 0.12540 0.11690 -0.00300
C 	C 	0.20280 0.05350 0.11455 0.59700
O 	O 	0.42760 -0.08400 -0.00780 -0.18500
C 	C 	0.35220 -0.05600 -0.02310 0.17000
O 	O 	0.87720 -0.03610 0.12801 -0.77100
O 	O 	0.77350 -0.07310 0.07310 -0.64300
C 	C 	0.72420 -0.04820 0.15202 -0.22400
C 	C 	0.73827 0.00590 0.19207 0.13400
H 	H 	0.79600 0.03330 0.19730 -0.01200
C 	C 	0.66783 0.01990 0.22443 -0.19600
H 	H 	0.67740 0.05690 0.25180 0.10100
C 	C 	0.58332 -0.02030 0.21674 0.14000
C 	C 	0.56925 -0.07440 0.17668 -0.19300
H 	H 	0.51150 -0.10190 0.17140 0.09600
C 	C 	0.63969 -0.08840 0.14432 0.13100
H 	H 	0.63010 -0.12540 0.11690 0.00900
C 	C 	0.79720 -0.05350 0.11455 0.58500
O 	O 	0.53610 0.37720 0.37199 -0.22200
O 	O 	0.57310 0.27350 0.42690 -0.23900
C 	C 	0.54820 0.22420 0.34798 -0.10100
C 	C 	0.49410 0.23827 0.30793 0.04400
H 	H 	0.46670 0.29600 0.30270 0.02800
C 	C 	0.48010 0.16783 0.27557 -0.14200
H 	H 	0.44310 0.17740 0.24820 0.07800
C 	C 	0.52030 0.08332 0.28326 0.10400
C 	C 	0.57440 0.06925 0.32332 -0.14300
H 	H 	0.60190 0.01150 0.32860 0.08500
C 	C 	0.58840 0.13969 0.35568 0.04700
H 	H 	0.62540 0.13010 0.38310 0.03000
C 	C 	0.55350 0.29720 0.38545 0.30300
O 	O 	0.46390 -0.37720 0.37199 -0.22700
O 	O 	0.42690 -0.27350 0.42690 -0.24900
C 	C 	0.45180 -0.22420 0.34798 -0.10700
C 	C 	0.50590 -0.23827 0.30793 0.04700
H 	H 	0.53330 -0.29600 0.30270 0.03200
C 	C 	0.51990 -0.16783 0.27557 -0.14300
H 	H 	0.55690 -0.17740 0.24820 0.08300
C 	C 	0.47970 -0.08332 0.28326 0.10500
C 	C 	0.42560 -0.06925 0.32332 -0.14700
H 	H 	0.39810 -0.01150 0.32860 0.07600
C 	C 	0.41160 -0.13969 0.35568 0.04700
H 	H 	0.37460 -0.13010 0.38310 0.01700
C 	C 	0.44650 -0.29720 0.38545 0.30400
O 	O 	0.42760 -0.08400 0.00780 -0.12400
C 	C 	0.35220 -0.05600 0.02310 0.34700
Zr	Zr	-0.16211 -0.05358 -0.00000 3.12000
O 	O 	0.12400 -0.06290 0.04740 -1.03600
O 	O 	-0.29310 0.02100 -0.00000 -0.87500
O 	O 	-0.22570 -0.18850 -0.00000 -0.72700
O 	O 	-0.42760 0.08400 -0.00780 -0.21200
C 	C 	-0.35220 0.05600 -0.02310 0.14200
O 	O 	-0.42760 0.08400 0.00780 -0.15900
C 	C 	-0.35220 0.05600 0.02310 0.30600
O 	O 	0.06290 0.12400 0.04740 -1.04400
O 	O 	-0.06290 -0.12400 0.04740 -1.06500
