data_crystal

_cell_length_a 23.96510
_cell_length_b 29.28420
_cell_length_c 17.35450
_cell_angle_alpha 90.00000
_cell_angle_beta  96.30100
_cell_angle_gamma 90.00000

_symmetry_space_group_name_	'P 1'
_symmetry_space_group_name_H-M	'P 1'

loop_
_symmetry_equiv_pos_as_xyz
  x,y,z

loop_
_atom_site_label
_atom_site_type_symbol
_atom_site_fract_x
_atom_site_fract_y
_atom_site_fract_z
_atom_site_charge
Zr	Zr	0.16605 0.20733 -0.46643 3.00700
Zr	Zr	0.29804 0.23111 -0.37064 3.05300
Zr	Zr	0.21407 0.32190 -0.44742 3.16400
O 	O 	0.29260 0.29220 -0.43410 -1.80600
O 	O 	0.13900 0.33557 -0.39660 -0.75900
O 	O 	0.23930 0.33962 -0.32250 -0.74400
O 	O 	0.38510 0.24970 -0.32320 -0.83400
O 	O 	0.29090 0.27799 -0.27440 -0.88000
O 	O 	0.24940 0.32380 -0.56210 -1.12900
O 	O 	0.20700 0.25760 -0.38010 -1.53400
O 	O 	0.09460 0.23690 -0.40750 -0.86200
O 	O 	0.15460 0.27550 -0.52940 -1.18000
O 	O 	0.33260 0.32484 0.35030 -0.84700
O 	O 	0.24550 0.30821 0.28680 -0.47400
O 	O 	-0.15390 0.66731 -0.35280 -0.53900
O 	O 	0.26010 0.61340 0.05070 -0.49600
O 	O 	-0.16130 0.63239 -0.46970 -0.42100
O 	O 	0.34010 0.63250 -0.00990 -1.08400
O 	O 	0.58840 0.30420 -0.03730 -0.30800
C 	C 	0.30090 0.41180 -0.12220 -0.06600
C 	C 	0.28700 0.34250 -0.19690 -0.17400
C 	C 	0.29470 0.32610 0.29310 0.38700
C 	C 	0.36020 0.41020 0.01130 -0.04900
C 	C 	0.31030 0.34980 0.22160 -0.16000
C 	C 	0.26960 0.31840 -0.27210 0.55600
C 	C 	0.34760 0.46160 0.01650 0.02600
C 	C 	0.34120 0.38910 0.08560 0.02600
C 	C 	0.30470 0.60440 0.02090 0.32800
C 	C 	0.32010 0.55500 0.02050 -0.14500
C 	C 	0.27910 0.38910 -0.19020 0.03100
C 	C 	0.32910 0.38740 -0.06110 0.04000
C 	C 	0.31350 0.31780 -0.13450 -0.01800
C 	C 	0.33450 0.34020 -0.06800 -0.08100
C 	C 	0.42200 0.39980 0.00120 0.02800
C 	C 	0.29200 0.36460 0.08450 -0.07300
C 	C 	0.37170 0.39760 0.15660 -0.06400
C 	C 	0.29410 0.47520 0.02710 -0.05500
C 	C 	0.27980 0.52230 0.02940 0.00700
C 	C 	0.35710 0.37790 0.22350 0.00400
C 	C 	0.27550 0.34610 0.15200 -0.02800
C 	C 	0.44190 0.41500 -0.06620 -0.05500
C 	C 	0.37320 0.54080 0.00890 -0.07800
C 	C 	0.38630 0.49410 0.00610 -0.06900
C 	C 	0.51820 0.36410 -0.04340 -0.08700
C 	C 	0.44970 0.36520 0.04130 -0.06700
C 	C 	0.49890 0.34900 0.01950 0.00200
C 	C 	0.56850 0.33830 -0.07430 0.28100
C 	C 	0.49030 0.39840 -0.09210 0.00900
C 	C 	-0.04320 0.52670 -0.29280 0.02500
C 	C 	0.02560 0.46040 -0.30500 0.02300
C 	C 	0.00890 0.39670 -0.39360 0.00500
C 	C 	0.10320 0.41560 -0.33920 -0.00600
C 	C 	0.06700 0.38720 -0.38510 -0.16800
C 	C 	-0.00000 0.49410 -0.25000 -0.04300
C 	C 	-0.08370 0.56720 -0.40770 -0.02500
C 	C 	-0.01090 0.43310 -0.35400 -0.05100
C 	C 	-0.04900 0.53260 -0.37160 -0.06500
C 	C 	-0.07310 0.55530 -0.24710 -0.06900
C 	C 	0.08290 0.45230 -0.29910 -0.06100
C 	C 	-0.11120 0.59610 -0.36130 -0.11400
C 	C 	-0.14580 0.63460 -0.39790 0.28700
C 	C 	-0.10630 0.59040 -0.28090 -0.06500
C 	C 	0.08870 0.34610 -0.42100 0.41300
O 	O 	0.05650 0.32220 -0.46620 -0.39800
O 	O 	0.58840 0.35140 -0.13840 -0.21500
O 	O 	-0.13900 0.33557 -0.10340 -0.75800
O 	O 	0.15390 0.66731 -0.14720 -0.53000
O 	O 	0.16130 0.63239 -0.03030 -0.41000
C 	C 	0.04320 0.52670 -0.20720 0.02500
C 	C 	-0.02560 0.46040 -0.19500 0.02400
C 	C 	-0.00890 0.39670 -0.10640 0.00900
C 	C 	-0.10320 0.41560 -0.16080 -0.00400
C 	C 	-0.06700 0.38720 -0.11490 -0.16700
C 	C 	0.08370 0.56720 -0.09230 -0.01900
C 	C 	0.01090 0.43310 -0.14600 -0.05000
C 	C 	0.04900 0.53260 -0.12840 -0.06200
C 	C 	0.07310 0.55530 -0.25290 -0.07000
C 	C 	-0.08290 0.45230 -0.20090 -0.06100
C 	C 	0.11120 0.59610 -0.13870 -0.11400
C 	C 	0.14580 0.63460 -0.10210 0.28700
C 	C 	0.10630 0.59040 -0.21910 -0.06300
C 	C 	-0.08870 0.34610 -0.07900 0.41400
O 	O 	-0.05650 0.32220 -0.03380 -0.39100
Zr	Zr	-0.16605 0.20733 -0.03357 3.01800
Zr	Zr	-0.29804 0.23111 -0.12936 3.06800
Zr	Zr	-0.21407 0.32190 -0.05258 3.16600
O 	O 	-0.29260 0.29220 -0.06590 -1.26200
O 	O 	-0.23930 0.33962 -0.17750 -0.74400
O 	O 	-0.38510 0.24970 -0.17680 -0.82200
O 	O 	-0.29090 0.27799 -0.22560 -0.88700
O 	O 	-0.24940 0.32380 0.06210 -0.64900
O 	O 	-0.20700 0.25760 -0.11990 -1.51500
O 	O 	-0.09460 0.23690 -0.09250 -0.85300
O 	O 	-0.15460 0.27550 0.02940 -1.12900
O 	O 	-0.33260 0.32484 -0.85030 -0.34500
O 	O 	-0.24550 0.30821 -0.78680 -0.38300
O 	O 	-0.26010 0.61340 -0.55070 -0.51400
O 	O 	-0.34010 0.63250 -0.49010 -1.11500
O 	O 	-0.58840 0.30420 -0.46270 -1.01600
C 	C 	-0.30090 0.41180 -0.37780 -0.07300
C 	C 	-0.28700 0.34250 -0.30310 -0.17500
C 	C 	-0.29470 0.32610 -0.79310 0.27000
C 	C 	-0.36020 0.41020 -0.51130 -0.05800
C 	C 	-0.31030 0.34980 -0.72160 -0.11700
C 	C 	-0.26960 0.31840 -0.22790 0.54800
C 	C 	-0.34760 0.46160 -0.51650 0.02800
C 	C 	-0.34120 0.38910 -0.58560 0.02500
C 	C 	-0.30470 0.60440 -0.52090 0.32300
C 	C 	-0.32010 0.55500 -0.52050 -0.14700
C 	C 	-0.27910 0.38910 -0.30980 0.02600
C 	C 	-0.32910 0.38740 -0.43890 0.04400
C 	C 	-0.31350 0.31780 -0.36550 -0.03100
C 	C 	-0.33450 0.34020 -0.43200 -0.09200
C 	C 	-0.42200 0.39980 -0.50120 0.02300
C 	C 	-0.29200 0.36460 -0.58450 -0.07300
C 	C 	-0.37170 0.39760 -0.65660 -0.08800
C 	C 	-0.29410 0.47520 -0.52710 -0.06100
C 	C 	-0.27980 0.52230 -0.52940 -0.00200
C 	C 	-0.35710 0.37790 -0.72350 -0.03200
C 	C 	-0.27550 0.34610 -0.65200 -0.04800
C 	C 	-0.44190 0.41500 -0.43380 -0.07400
C 	C 	-0.37320 0.54080 -0.50890 -0.10700
C 	C 	-0.38630 0.49410 -0.50610 -0.09600
C 	C 	-0.51820 0.36410 -0.45660 -0.16200
C 	C 	-0.44970 0.36520 -0.54130 -0.08700
C 	C 	-0.49890 0.34900 -0.51950 -0.09900
C 	C 	-0.56850 0.33830 -0.42570 0.38600
C 	C 	-0.49030 0.39840 -0.40790 -0.02600
O 	O 	-0.58840 0.35140 -0.36160 -0.38900
Zr	Zr	-0.33395 0.70733 -0.46643 2.96700
Zr	Zr	0.33395 0.70733 -0.03357 2.97600
Zr	Zr	-0.66605 0.29267 -0.53357 3.08700
