data_crystal

_cell_length_a 17.87360
_cell_length_b 17.87360
_cell_length_c 17.87360
_cell_angle_alpha 90.00000
_cell_angle_beta  90.00000
_cell_angle_gamma 90.00000

_symmetry_space_group_name_	'P 1'
_symmetry_space_group_name_H-M	'P 1'

loop_
_symmetry_equiv_pos_as_xyz
  x,y,z

loop_
_atom_site_label
_atom_site_type_symbol
_atom_site_fract_x
_atom_site_fract_y
_atom_site_fract_z
_atom_site_charge
O 	O 	0.34000 0.34000 0.16000 -0.38000
O 	O 	0.36100 0.66700 0.19640 -0.12000
D 	D 	0.31000 0.67300 0.21800 -0.15400
D 	D 	0.39500 0.64600 0.23800 -0.17500
O 	O 	0.25000 0.25000 0.25000 -0.48000
O 	O 	0.75000 0.75000 0.25000 -0.34400
Zr	Zr	0.36080 0.51120 0.00880 3.08100
O 	O 	0.30950 0.62440 0.02970 -1.04800
O 	O 	0.29190 0.40610 0.00720 -1.15000
C 	C 	0.33680 0.68420 0.02250 0.58900
C 	C 	0.30650 0.34230 0.00130 0.66000
C 	C 	0.24280 0.28690 0.00270 -0.36800
H 	H 	0.19020 0.30430 -0.00200 -0.02300
O 	O 	0.40710 0.70560 0.02090 -1.06100
O 	O 	0.37290 0.31400 -0.00370 -1.13300
C 	C 	0.28840 0.75410 0.02640 -0.35000
H 	H 	0.31600 0.79480 0.02410 0.12900
O 	O 	0.43620 0.57710 0.09040 -1.16800
O 	O 	0.43820 0.43820 0.06180 -1.43900
D 	D 	0.41110 0.60840 0.12390 0.14500
O 	O 	0.19050 0.87560 0.02970 -0.37900
C 	C 	0.16320 0.81580 0.02250 0.37800
O 	O 	0.09290 0.79440 0.02090 -0.77500
C 	C 	0.21160 0.74590 0.02640 -0.07800
H 	H 	0.18400 0.70520 0.02410 -0.01700
O 	O 	0.20810 0.09390 0.00720 -0.48300
C 	C 	0.19350 0.15770 0.00130 0.29400
C 	C 	0.25720 0.21310 0.00270 -0.11800
H 	H 	0.30980 0.19570 -0.00200 -0.05600
O 	O 	0.12710 0.18600 -0.00370 -0.65400
Zr	Zr	-0.00880 0.86080 0.01120 3.10700
O 	O 	-0.02970 0.80950 0.12440 -0.86200
O 	O 	-0.00720 0.79190 -0.09390 -1.01600
C 	C 	-0.02250 0.83680 0.18420 0.45900
C 	C 	-0.00130 0.80650 -0.15770 0.55500
C 	C 	-0.00270 0.74280 -0.21310 -0.19500
H 	H 	0.00200 0.69020 -0.19570 -0.07200
O 	O 	-0.02090 0.90710 0.20560 -0.48500
O 	O 	0.00370 0.87290 -0.18600 -0.89600
C 	C 	-0.02640 0.78840 0.25410 -0.18100
H 	H 	-0.02410 0.81600 0.29480 0.06200
O 	O 	-0.09040 0.93620 0.07710 -1.46900
D 	D 	-0.12390 0.91110 0.10840 0.02400
O 	O 	-0.02970 0.69050 0.37560 -0.91900
C 	C 	-0.02250 0.66320 0.31580 0.57000
O 	O 	-0.02090 0.59290 0.29440 -1.14800
C 	C 	-0.02640 0.71160 0.24590 -0.26100
H 	H 	-0.02410 0.68400 0.20520 0.04400
O 	O 	-0.00720 0.70810 -0.40610 -1.21800
C 	C 	-0.00130 0.69350 -0.34230 0.69400
C 	C 	-0.00270 0.75720 -0.28690 -0.37400
H 	H 	0.00200 0.80980 -0.30430 0.05400
O 	O 	0.00370 0.62710 -0.31400 -1.29100
Zr	Zr	0.01120 0.99120 -0.13920 3.05600
O 	O 	0.12440 0.97030 -0.19050 -0.90100
O 	O 	-0.09390 0.99280 -0.20810 -1.21700
C 	C 	0.18420 0.97750 -0.16320 0.42000
C 	C 	-0.15770 0.99870 -0.19350 0.61400
C 	C 	-0.21310 0.99730 -0.25720 -0.39500
H 	H 	-0.19570 1.00200 -0.30980 -0.00400
O 	O 	0.20560 0.97910 -0.09290 -0.38000
O 	O 	-0.18600 1.00370 -0.12710 -1.29100
C 	C 	0.25410 0.97360 -0.21160 -0.28900
H 	H 	0.29480 0.97590 -0.18400 0.08600
O 	O 	0.07710 0.90960 -0.06380 -1.27700
D 	D 	0.10840 0.87610 -0.08890 0.26600
O 	O 	0.37560 0.97030 -0.30950 -0.43000
C 	C 	0.31580 0.97750 -0.33680 0.26800
O 	O 	0.29440 0.97910 -0.40710 -0.51500
C 	C 	0.24590 0.97360 -0.28840 -0.14300
H 	H 	0.20520 0.97590 -0.31600 -0.03900
O 	O 	-0.40610 0.99280 -0.29190 -0.49100
C 	C 	-0.34230 0.99870 -0.30650 0.27400
C 	C 	-0.28690 0.99730 -0.24280 -0.13900
H 	H 	-0.30430 1.00200 -0.19020 -0.08600
O 	O 	-0.31400 1.00370 -0.37290 -0.53000
Zr	Zr	-0.00880 0.63920 -0.51120 3.02700
O 	O 	-0.09040 0.56380 -0.57710 -1.88600
D 	D 	-0.12390 0.58890 -0.60840 -0.08800
Zr	Zr	0.01120 0.50880 -0.36080 2.88800
O 	O 	0.07710 0.59040 -0.43620 -1.85000
D 	D 	0.10840 0.62390 -0.41110 0.03000
Zr	Zr	0.50880 0.63920 0.01120 3.09400
O 	O 	0.59040 0.56380 0.07710 -0.76800
O 	O 	0.56180 0.56180 -0.06180 -1.27400
D 	D 	0.62390 0.58890 0.10840 -0.14200
Zr	Zr	0.00880 0.36080 -0.48880 2.73300
Zr	Zr	-0.13920 1.01120 -0.00880 2.98700
Zr	Zr	0.49120 0.36080 -0.01120 3.01000
Zr	Zr	-0.01120 0.49120 -0.63920 2.87700
