data_crystal

_cell_length_a 26.85140
_cell_length_b 26.85140
_cell_length_c 26.85140
_cell_angle_alpha 90.00000
_cell_angle_beta  90.00000
_cell_angle_gamma 90.00000

_symmetry_space_group_name_	'P 1'
_symmetry_space_group_name_H-M	'P 1'

loop_
_symmetry_equiv_pos_as_xyz
  x,y,z

loop_
_atom_site_label
_atom_site_type_symbol
_atom_site_fract_x
_atom_site_fract_y
_atom_site_fract_z
_atom_site_charge
O 	O 	0.38740 -0.11260 0.11260 -0.57900
O 	O 	0.50000 0.00000 0.20700 -0.75400
Zr	Zr	0.50000 0.00000 0.09200 3.12100
O 	O 	0.46050 0.03950 0.03950 -0.90200
O 	O 	0.36640 0.00000 0.07130 -0.53800
O 	O 	0.42840 0.00000 0.13360 -0.83100
C 	C 	0.38220 0.00000 0.11750 0.37200
C 	C 	0.34310 -0.00000 0.15690 -0.23500
C 	C 	0.29300 -0.00000 0.14320 -0.14800
C 	C 	0.35650 0.00000 0.20690 0.27600
C 	C 	0.31770 0.00000 0.24220 -0.25500
H 	H 	0.32620 0.00000 0.27650 0.01700
C 	C 	0.27020 0.00000 0.22990 -0.03900
C 	C 	0.25760 0.00000 0.18230 -0.11400
H 	H 	0.22330 0.00000 0.17400 -0.09400
O 	O 	0.40000 0.03200 0.22000 -0.35400
O 	O 	0.13360 0.00000 0.42870 -0.92000
O 	O 	0.07160 0.00000 0.36640 -1.26600
C 	C 	0.11780 0.00000 0.38250 0.49000
C 	C 	0.15690 0.00000 0.34310 -0.37300
C 	C 	0.20700 0.00000 0.35680 0.05600
C 	C 	0.14350 0.00000 0.29310 0.40100
C 	C 	0.18230 0.00000 0.25780 -0.38100
H 	H 	0.17380 0.00000 0.22350 0.02800
C 	C 	0.22980 0.00000 0.27010 0.09100
C 	C 	0.24240 0.00000 0.31770 -0.23500
H 	H 	0.27670 0.00000 0.32600 0.00200
O 	O 	0.10000 0.03200 0.28000 -0.50000
O 	O 	0.40000 -0.03200 0.22000 -0.33500
O 	O 	0.10000 -0.03200 0.28000 -0.53800
O 	O 	0.53950 -0.03950 0.03950 -1.11000
Zr	Zr	0.09200 0.00000 0.50000 2.98300
O 	O 	0.07130 -0.13360 0.50000 -1.69000
O 	O 	0.13360 -0.07160 0.50000 -1.21300
C 	C 	0.11750 -0.11780 0.50000 0.35500
C 	C 	0.15690 -0.15690 0.50000 -0.30700
C 	C 	0.14320 -0.20700 0.50000 -0.34200
C 	C 	0.20690 -0.14350 0.50000 0.26900
C 	C 	0.24220 -0.18230 0.50000 -0.27800
H 	H 	0.27650 -0.17380 0.50000 -0.00900
C 	C 	0.22990 -0.22980 0.50000 -0.07200
C 	C 	0.18230 -0.24240 0.50000 -0.09400
H 	H 	0.17400 -0.27670 0.50000 -0.16500
O 	O 	0.22000 -0.10000 0.53200 -0.46800
O 	O 	0.42870 -0.36640 0.50000 -1.94400
O 	O 	0.36640 -0.42840 0.50000 -1.60400
C 	C 	0.38250 -0.38220 0.50000 0.34700
C 	C 	0.34310 -0.34310 0.50000 -0.40600
C 	C 	0.35680 -0.29300 0.50000 -0.34500
C 	C 	0.29310 -0.35650 0.50000 0.33400
C 	C 	0.25780 -0.31770 0.50000 -0.36100
H 	H 	0.22350 -0.32620 0.50000 -0.01400
C 	C 	0.27010 -0.27020 0.50000 -0.02100
C 	C 	0.31770 -0.25760 0.50000 -0.13800
H 	H 	0.32600 -0.22330 0.50000 -0.13300
O 	O 	0.28000 -0.40000 0.53200 -0.55200
O 	O 	0.22000 -0.10000 0.46800 -0.29200
O 	O 	0.28000 -0.40000 0.46800 -0.52600
O 	O 	0.03950 0.03950 0.46050 -2.84600
O 	O 	0.07130 0.13360 0.50000 -1.44700
O 	O 	0.13360 0.07160 0.50000 -1.05400
C 	C 	0.11750 0.11780 0.50000 0.41200
C 	C 	0.15690 0.15690 0.50000 -0.31300
C 	C 	0.14320 0.20700 0.50000 -0.28500
C 	C 	0.20690 0.14350 0.50000 0.28400
C 	C 	0.24220 0.18230 0.50000 -0.28500
H 	H 	0.27650 0.17380 0.50000 0.00500
C 	C 	0.22990 0.22980 0.50000 -0.04200
C 	C 	0.18230 0.24240 0.50000 -0.11100
H 	H 	0.17400 0.27670 0.50000 -0.13300
O 	O 	0.22000 0.10000 0.46800 -0.27500
O 	O 	0.42870 0.36640 0.50000 -1.29500
O 	O 	0.36640 0.42840 0.50000 -1.40700
C 	C 	0.38250 0.38220 0.50000 0.27400
C 	C 	0.34310 0.34310 0.50000 -0.34200
C 	C 	0.35680 0.29300 0.50000 -0.28300
C 	C 	0.29310 0.35650 0.50000 0.30800
C 	C 	0.25780 0.31770 0.50000 -0.32900
H 	H 	0.22350 0.32620 0.50000 -0.00000
C 	C 	0.27010 0.27020 0.50000 -0.01800
C 	C 	0.31770 0.25760 0.50000 -0.13500
H 	H 	0.32600 0.22330 0.50000 -0.11000
O 	O 	0.28000 0.40000 0.46800 -0.46000
O 	O 	0.22000 0.10000 0.53200 -0.46500
O 	O 	0.28000 0.40000 0.53200 -0.48600
Zr	Zr	0.50000 -0.40800 0.50000 2.62200
O 	O 	0.53950 0.03950 0.03950 -0.99600
Zr	Zr	0.00000 0.09200 0.50000 2.85400
Zr	Zr	-0.00000 -0.09200 0.50000 2.74700
Zr	Zr	0.50000 -0.50000 0.59200 2.56300
Zr	Zr	0.50000 -0.50000 0.40800 2.57000
Zr	Zr	0.00000 0.00000 0.59200 2.65200
Zr	Zr	0.00000 0.00000 0.40800 2.87700
Zr	Zr	0.59200 -0.50000 0.50000 2.49800
Zr	Zr	0.40800 -0.50000 0.50000 2.78400
