data_crystal

_cell_length_a 39.22200
_cell_length_b 26.01800
_cell_length_c 27.88700
_cell_angle_alpha 90.00000
_cell_angle_beta  90.00000
_cell_angle_gamma 90.00000

_symmetry_space_group_name_	'P 1'
_symmetry_space_group_name_H-M	'P 1'

loop_
_symmetry_equiv_pos_as_xyz
  x,y,z

loop_
_atom_site_label
_atom_site_type_symbol
_atom_site_fract_x
_atom_site_fract_y
_atom_site_fract_z
_atom_site_charge
Zr	Zr	0.01253 0.19131 0.70101 3.20900
O 	O 	-0.01491 0.17840 0.63840 -1.41300
O 	O 	-0.03407 0.24110 0.70180 -1.23000
O 	O 	-0.03056 0.14400 0.73090 -0.68800
O 	O 	0.03126 0.11280 0.70830 -0.64200
O 	O 	0.02540 0.26480 0.68120 -1.43500
O 	O 	0.04737 0.18550 0.63710 -1.18600
O 	O 	0.06637 0.19710 0.73230 -0.62100
O 	O 	0.00830 0.22730 0.77480 -0.58300
Zr	Zr	-0.06026 0.21879 0.63324 3.21200
Zr	Zr	0.01232 0.17290 0.57488 3.21200
Zr	Zr	-0.01336 0.31888 0.68418 3.21200
H 	H 	-0.04830 0.23900 0.73140 0.32100
C 	C 	-0.06170 0.14080 0.72040 0.52000
Zr	Zr	0.05965 0.27276 0.62667 3.21300
H 	H 	0.06730 0.16170 0.64000 0.26500
O 	O 	-0.03782 0.29020 0.62420 -1.41200
O 	O 	-0.07862 0.15060 0.59370 -0.74300
O 	O 	-0.07756 0.16310 0.68750 -0.74800
O 	O 	-0.03427 0.22070 0.56150 -1.23500
O 	O 	-0.09829 0.25150 0.58270 -0.61300
O 	O 	-0.09782 0.26410 0.67510 -0.62200
O 	O 	0.00865 0.18130 0.49660 -0.70300
O 	O 	0.03140 0.09590 0.58160 -0.70000
O 	O 	0.02508 0.25010 0.57660 -1.44800
O 	O 	-0.03156 0.11880 0.55800 -0.69500
O 	O 	0.06680 0.17280 0.54280 -0.56200
O 	O 	0.01749 0.33460 0.61870 -1.19800
O 	O 	0.03232 0.36580 0.71000 -0.71100
O 	O 	-0.02660 0.39880 0.67280 -0.70700
O 	O 	-0.00919 0.31020 0.76150 -0.61200
O 	O 	-0.06762 0.33030 0.70740 -0.59800
C 	C 	-0.08220 0.10480 0.75050 -0.20000
O 	O 	0.07849 0.33900 0.66810 -0.75900
O 	O 	0.07750 0.32590 0.57010 -0.74800
O 	O 	0.09743 0.23090 0.58440 -0.66400
O 	O 	0.09718 0.24390 0.67950 -0.65800
Zr	Zr	-0.01310 0.30022 0.55889 3.21300
C 	C 	-0.06310 0.12120 0.56510 0.52100
H 	H 	-0.04860 0.21030 0.53340 0.32200
C 	C 	0.00120 0.22120 0.47170 0.44300
C 	C 	0.06060 0.07680 0.58750 0.11400
H 	H 	0.02540 0.37080 0.61410 0.22400
C 	C 	0.06330 0.36450 0.70090 0.47900
C 	C 	-0.11700 0.09610 0.74860 0.11400
N 	N 	-0.06850 0.07540 0.78400 -0.09900
C 	C 	0.06200 0.34550 0.53430 0.47800
O 	O 	-0.02690 0.38070 0.55130 -0.69800
O 	O 	-0.00760 0.26680 0.48470 -0.63900
O 	O 	0.03102 0.33990 0.52340 -0.66500
O 	O 	-0.06786 0.30430 0.53430 -0.53500
C 	C 	-0.08464 0.08830 0.53550 -0.22600
C 	C 	0.00190 0.21360 0.41900 -0.13900
O 	O 	0.08440 0.09640 0.61410 -0.47800
C 	C 	0.08540 0.39550 0.73350 -0.25600
H 	H 	-0.13330 0.11160 0.72790 -0.19700
C 	C 	-0.12230 0.06020 0.78320 -0.38900
N 	N 	-0.09280 0.04810 0.80460 -0.12400
C 	C 	0.08290 0.37910 0.50350 -0.24300
C 	C 	-0.05060 0.41070 0.55840 0.29900
N 	N 	-0.06841 0.05560 0.50170 -0.15100
C 	C 	-0.12039 0.08480 0.52810 0.13300
C 	C 	-0.00390 0.24630 0.38030 0.08600
N 	N 	0.00960 0.16550 0.40180 -0.16200
N 	N 	0.07180 0.42850 0.76420 -0.17900
C 	C 	0.11940 0.39550 0.74070 0.10400
C 	C 	-0.15470 0.03600 0.80120 0.55400
C 	C 	0.11780 0.38570 0.50180 0.12500
N 	N 	0.06740 0.41130 0.47150 -0.13400
O 	O 	-0.06540 0.44580 0.53580 -0.54900
N 	N 	-0.09414 0.03190 0.47350 -0.19900
H 	H 	-0.13740 0.10270 0.54580 -0.21200
C 	C 	-0.12626 0.05000 0.48980 -0.44000
H 	H 	-0.01010 0.28150 0.38150 -0.07200
C 	C 	0.00110 0.21720 0.34060 -0.32600
N 	N 	0.00920 0.16860 0.35400 -0.20700
N 	N 	0.09490 0.45070 0.79150 -0.23000
C 	C 	0.12390 0.43050 0.77770 -0.44600
H 	H 	0.13630 0.37600 0.72440 -0.23500
C 	C 	0.12380 0.42160 0.46680 -0.46400
H 	H 	0.13430 0.36870 0.52100 -0.23100
N 	N 	0.09250 0.43700 0.44950 -0.21300
C 	C 	-0.15640 0.03460 0.46570 0.63500
C 	C 	-0.00010 0.22740 0.28830 0.51000
C 	C 	0.15610 0.44590 0.80290 0.56000
C 	C 	0.15530 0.44460 0.44850 0.56900
O 	O 	-0.15171 0.00150 0.83270 -1.57300
O 	O 	-0.18214 0.05430 0.78430 -1.62000
Zr	Zr	-0.18974 -0.03121 0.88324 2.83000
Zr	Zr	-0.23690 0.05022 0.80889 2.81900
O 	O 	-0.18363 0.05290 0.48230 -1.62800
O 	O 	-0.15282 0.00610 0.42950 -1.64800
O 	O 	0.00919 0.18980 0.26150 -1.61700
O 	O 	-0.00830 0.27270 0.27480 -1.49500
O 	O 	0.15257 0.48090 0.83440 -1.70700
O 	O 	0.18320 0.42280 0.79280 -1.66400
O 	O 	0.15218 0.48590 0.42510 -1.69100
O 	O 	0.18238 0.41970 0.45740 -1.68000
Zr	Zr	-0.23747 0.05869 0.45101 2.81700
Zr	Zr	-0.19035 -0.02276 0.37667 2.82500
Zr	Zr	0.01336 0.18112 0.18418 2.84700
Zr	Zr	-0.01253 0.30869 0.20101 2.84700
Zr	Zr	0.19035 0.52276 0.87667 2.81700
Zr	Zr	0.23768 0.42290 0.82488 2.80200
Zr	Zr	0.18974 0.53121 0.38324 2.81300
Zr	Zr	0.23664 0.43112 0.43418 2.80800
O 	O 	-0.07090 0.19320 0.48150 -0.32500
N 	N 	-0.08800 0.19790 0.40500 -0.27300
C 	C 	-0.08130 0.21710 0.44850 0.23800
H 	H 	-0.08520 0.25280 0.45330 -0.10200
C 	C 	-0.08440 0.14600 0.39310 0.21500
H 	H 	-0.07680 0.12680 0.42140 -0.09800
H 	H 	-0.06760 0.14230 0.36740 -0.21100
H 	H 	-0.10640 0.13240 0.38230 -0.31700
C 	C 	-0.09670 0.23490 0.36330 0.21800
H 	H 	-0.09730 0.27030 0.37520 -0.20300
H 	H 	-0.11910 0.22580 0.35000 -0.36300
H 	H 	-0.07940 0.23190 0.33810 -0.24200
O 	O 	-0.07080 -0.01010 0.88270 -0.74900
O 	O 	-0.07350 0.23900 0.78340 -0.32600
N 	N 	-0.08500 0.23250 0.86340 -0.13400
C 	C 	-0.07030 0.22020 0.82010 0.06900
C 	C 	-0.08510 0.19710 0.90880 -0.57800
C 	C 	-0.10240 0.28350 0.88700 -0.56700
O 	O 	0.00020 0.38100 0.42900 -0.19000
C 	C 	-0.00100 0.40400 0.38800 -0.41200
O 	O 	-0.07400 0.40100 0.38800 -0.65700
C 	C 	-0.05100 0.39200 0.40100 0.16900
O 	O 	0.00270 0.04240 0.78090 -0.43900
